#################################
###          TESTING          ###
#################################

This is a test file, ignore.
New line.

#################################
###       STILL TESTING       ###
#################################
