#################################
###          TESTING          ###
#################################

This is a test file, ignore.
New line.
This line is from GitHub.
This line fixes issue 7 and hotfix.

#################################
###       STILL TESTING       ###
#################################
